demo-gld-ns3/fncs_GLD_300node_Feeder_1.glm
clock {
     timezone EST+5EDT;
     timestamp '2009-07-21 00:00:00';
     stoptime '2009-07-23 00:01:00';
}

#set profiler=1;
#set double_format=%+.12lg
#set randomseed=10;
#set relax_naming_rules=1;
#include "water_and_setpoint_schedule_v3.glm";
#include "appliance_schedules.glm";

module market;
module tape;
module comm;
module climate;
module residential {
     implicit_enduses NONE;
};
module powerflow {
     solver_method FBS;
     NR_iteration_limit 100;
};

class player {
      double value;
}
object player {
    name phase_A_load;
    file phase_A.player;
    loop 1;
}
object player {
    name phase_B_load;
    file phase_B.player;
    loop 1;
}
object player {
    name phase_C_load;
    file phase_C.player;
    loop 1;
}
object csv_reader {
     name CSVREADER;
     filename ColumbusWeather2009_2a.csv;
}

object climate {
     name "Columbus OH";
     tmyfile ColumbusWeather2009_2a.csv;
     reader CSVREADER;
};


class auction {
 	double day_ahead_average;
 	double day_ahead_std;
 	double current_price_mean_24h;
    double current_price_stdev_24h;
}
object auction {
    name Market1;
    unit kW;
    period 300;
    price_cap 3.78;
    transaction_log_file log_file_fncs_GLD_300node_feeder_1_base_case.csv;
    curve_log_file bid_curve_fncs_GLD_300node_feeder_1_base_case.csv;
    curve_log_info EXTRA;
    object market_network_interface {
         name MarkNIF1;
         average_price_prop current_price_mean_24h;
         stdev_price_prop current_price_stdev_24h;
		 adjust_price_prop adjust_price;
    };
    object player {
        property fixed_price;
        file AEP_RT_LMP.player;
        loop 1;
    };
    special_mode BUYERS_ONLY;
    object recorder {
        property capacity_reference_bid_price, current_market.clearing_price, current_market.clearing_quantity;
        limit 100000000;
        interval 300;
        file baseprice_clearedprice_clearedquantity_fncs_GLD_300node_feeder_1.csv;
    };
    init_price 0.042676;
    init_stdev 0.02;
    use_future_mean_price FALSE;
    warmup 0;
}
object transformer_configuration {
      name substation_config;
      connect_type WYE_WYE;
      install_type PADMOUNT;
      primary_voltage 7200 V;
      secondary_voltage 7200 V;
      power_rating 4500;
      powerA_rating 1500;
      powerB_rating 1500;
      powerC_rating 1500;
      impedance 0.0015+0.00675j;
}

object transformer_configuration {
     name default_transformer_A;
     connect_type SINGLE_PHASE_CENTER_TAPPED;
     install_type PADMOUNT;
     primary_voltage 7200 V;
     secondary_voltage 124 V;
     power_rating 1500;
     powerA_rating 1500;
     impedance 0.015+0.0675j;
}

object transformer_configuration {
     name default_transformer_B;
     connect_type SINGLE_PHASE_CENTER_TAPPED;
     install_type PADMOUNT;
     primary_voltage 7200 V;
     secondary_voltage 124 V;
     power_rating 1500;
     powerB_rating 1500;
     impedance 0.015+0.0675j;
}

object transformer_configuration {
     name default_transformer_C;
     connect_type SINGLE_PHASE_CENTER_TAPPED;
     install_type PADMOUNT;
     primary_voltage 7200 V;
     secondary_voltage 124 V;
     power_rating 1500;
     powerC_rating 1500;
     impedance 0.015+0.0675j;
}

object triplex_line_conductor {
      name Name_1_0_AA_triplex;
      resistance 0.57;
      geometric_mean_radius 0.0111;
}

object triplex_line_configuration {
      name TLCFG;
      conductor_1 Name_1_0_AA_triplex;
      conductor_2 Name_1_0_AA_triplex;
      conductor_N Name_1_0_AA_triplex;
      insulation_thickness 0.08;
      diameter 0.368;
}

object substation {
	bustype SWING;
	name substation_root;
	nominal_voltage 7200;
	reference_phase PHASE_A;
	phases ABCN;
	voltage_A 7200.0+0.0j;
	voltage_B -3600.0-6235.3829j;
	voltage_C -3600.0+6235.3829j;
	object recorder{
		property positive_sequence_voltage,distribution_load;
		file substation_parameters_feeder_1.csv;
		interval 300;
	};
}

object transformer {
      phases ABCN;
      groupid F1_Network_Trans;
      name F1_Transformer1;
      from substation_root;
      to F1_transformer_meter;
      configuration substation_config;
}

object meter {
     name F1_transformer_meter;
     phases ABCN;
     nominal_voltage 7200;
}

object load {
     name F1_unresp_load;
     nominal_voltage 7200;
     phases ABCN;
     parent F1_transformer_meter;
     constant_power_A_real phase_A_load.value*0.1;
     constant_power_B_real phase_B_load.value*0.1;
     constant_power_C_real phase_C_load.value*0.1;
};

object transformer {
     name F1_center_tap_transformer_A;
     phases AS;
     from F1_transformer_meter;
     to F1_triplex_node_A;
     configuration default_transformer_A;
}

object transformer {
     name F1_center_tap_transformer_B;
     phases BS;
     from F1_transformer_meter;
     to F1_triplex_node_B;
     configuration default_transformer_B;
}

object transformer {
     name F1_center_tap_transformer_C;
     phases CS;
     from F1_transformer_meter;
     to F1_triplex_node_C;
     configuration default_transformer_C;
}

object triplex_meter {
     name F1_triplex_node_A;
     phases AS;
     nominal_voltage 124.00;
}

object triplex_meter {
     name F1_triplex_node_B;
     phases BS;
     nominal_voltage 124.00;
}

object triplex_meter {
     name F1_triplex_node_C;
     phases CS;
     nominal_voltage 124.00;
}

object triplex_line {
     from F1_triplex_node_A;
     to F1_tpm_flatrate_A1;
     groupid F1_Triplex_Line;
     phases AS;
     length 10;
     configuration TLCFG;
}

object triplex_meter {
     nominal_voltage 124;
     phases AS;
     name F1_tpm_flatrate_A1;
     groupid F1_flatrate_meter;
}

object triplex_meter {
     nominal_voltage 124;
     phases AS;
     name F1_tpm_rt_A1;
     groupid F1_rt_meter;
     parent F1_tpm_flatrate_A1;
}

object house {
     name F1_H_1;
     //Residential_2
     parent F1_tpm_rt_A1;
     schedule_skew -685;
     Rroof 33.69;
     Rwall 17.71;
     Rfloor 17.02;
     Rdoors 5;
     Rwindows 1.81;
     airchange_per_hour 0.80;
     hvac_power_factor 0.97;
     cooling_system_type ELECTRIC;
     heating_system_type GAS;
     fan_type ONE_SPEED;
     hvac_breaker_rating 200;
     total_thermal_mass_per_floor_area 3.01;
     motor_efficiency AVERAGE;
     motor_model BASIC;
     cooling_COP 3.90;
     floor_area 1040;
     number_of_doors 2;
     heating_setpoint heating7*1.017+2.41;

     object controller {
          name F1_C_1;
          use_override ON;
          override override;
          market Market1;
          schedule_skew -685;
          bid_mode PROXY;
          proxy_delay 10;
          object controller_network_interface {
               name F1_single_ramp_NIF_1;
               destination MarkNIF1;   
          };
          control_mode RAMP;
          base_setpoint cooling8*0.977+3.56;
          setpoint cooling_setpoint;
          target air_temperature;
          deadband thermostat_deadband;
          use_predictive_bidding true;
          average_target current_price_mean_24h;
          standard_deviation_target current_price_stdev_24h;
          period 300;
          demand last_cooling_load;
           range_high 4.000;
           range_low -2.000;
           ramp_high 2.600;
           ramp_low 2.600;
          total total_load;
          load hvac_load;
          state power_state;
     };

     object ZIPload {
          schedule_skew -685;
          base_power LIGHTS*1.8752;
          power_fraction 0.600000;
          impedance_fraction 0.400000;
          current_fraction 0.000000;
          power_pf -0.780;
          current_pf 0.420;
          impedance_pf -0.880;
          heat_fraction 0.91;
     };
     object ZIPload {
          schedule_skew -685;
          base_power CLOTHESWASHER*0.4354;
          power_fraction 1.000000;
          impedance_fraction 0.000000;
          current_fraction 0.000000;
          power_pf 0.970;
          current_pf 0.970;
          impedance_pf 0.970;
          heat_fraction 0.70;
     };
     object ZIPload {
          schedule_skew -685;
          base_power REFRIGERATOR*0.7763;
          power_fraction 1.000000;
          impedance_fraction 0.000000;
          current_fraction 0.000000;
          power_pf 0.970;
          current_pf 0.970;
          impedance_pf 0.970;
          heat_fraction 0.86;
     };
     object ZIPload {
          schedule_skew -685;
          base_power DRYER*1.0019;
          power_fraction 0.100000;
          impedance_fraction 0.800000;
          current_fraction 0.100000;
          power_pf 0.900;
          current_pf 0.900;
          impedance_pf 1.000;
          heat_fraction 0.77;
     };
     object ZIPload {
          schedule_skew -685;
          base_power FREEZER*0.9110;
          power_fraction 1.000000;
          impedance_fraction 0.000000;
          current_fraction 0.000000;
          power_pf 0.970;
          current_pf 0.970;
          impedance_pf 0.970;
          heat_fraction 0.80;
     };
     object ZIPload {
          schedule_skew -685;
          base_power RANGE*1.0590;
          power_fraction 0.000000;
          impedance_fraction 1.000000;
          current_fraction 0.000000;
          power_pf 0.000;
          current_pf 0.000;
          impedance_pf 1.000;
          heat_fraction 0.86;
     };
     object ZIPload {
          schedule_skew -685;
          base_power MICROWAVE*0.6381;
          power_fraction 1.000000;
          impedance_fraction 0.000000;
          current_fraction 0.000000;
          power_pf 0.970;
          current_pf 0.970;
          impedance_pf 0.970;
          heat_fraction 0.94;
     };
}

object triplex_line {
     from F1_triplex_node_A;
     to F1_tpm_flatrate_A2;
     groupid F1_Triplex_Line;
     phases AS;
     length 10;
     configuration TLCFG;
}

object triplex_meter {
     nominal_voltage 124;
     phases AS;
     name F1_tpm_flatrate_A2;
     groupid F1_flatrate_meter;
}

object triplex_meter {
     nominal_voltage 124;
     phases AS;
     name F1_tpm_rt_A2;
     groupid F1_rt_meter;
     parent F1_tpm_flatrate_A2;
}

object house {
     name F1_H_2;
     //Residential_1
     parent F1_tpm_rt_A2;
     schedule_skew -505;
     Rroof 15.80;
     Rwall 10.68;
     Rfloor 11.65;
     Rdoors 3;
     Rwindows 0.97;
     airchange_per_hour 1.08;
     hvac_power_factor 0.97;
     cooling_system_type ELECTRIC;
     heating_system_type GAS;
     fan_type ONE_SPEED;
     hvac_breaker_rating 200;
     total_thermal_mass_per_floor_area 4.63;
     motor_efficiency AVERAGE;
     motor_model BASIC;
     cooling_COP 3.26;
     floor_area 1396;
     number_of_doors 2;
     heating_setpoint heating4*0.979+2.33;

     object controller {
          name F1_C_2;
          use_override ON;
          override override;
          market Market1;
          schedule_skew -505;
          bid_mode PROXY;
          proxy_delay 10;
          object controller_network_interface {
               name F1_single_ramp_NIF_2;
               destination MarkNIF1;
               
          };
          control_mode RAMP;
          base_setpoint cooling8*1.048+5.35;
          setpoint cooling_setpoint;
          target air_temperature;
          deadband thermostat_deadband;
          use_predictive_bidding true;
          average_target current_price_mean_24h;
          standard_deviation_target current_price_stdev_24h;
          period 300;
          demand last_cooling_load;
           range_high 6.000;
           range_low -3.000;
           ramp_high 2.400;
           ramp_low 2.400;
          total total_load;
          load hvac_load;
          state power_state;
     };

     object ZIPload {
          schedule_skew -505;
          base_power LIGHTS*1.1552;
          power_fraction 0.000000;
          impedance_fraction 1.000000;
          current_fraction 0.000000;
          power_pf 0.000;
          current_pf 0.000;
          impedance_pf 1.000;
          heat_fraction 0.82;
     };
}

object triplex_line {
     from F1_triplex_node_A;
     to F1_tpm_flatrate_A3;
     groupid F1_Triplex_Line;
     phases AS;
     length 10;
     configuration TLCFG;
}

object triplex_meter {
     nominal_voltage 124;
     phases AS;
     name F1_tpm_flatrate_A3;
     groupid F1_flatrate_meter;
}

object triplex_meter {
     nominal_voltage 124;
     phases AS;
     name F1_tpm_rt_A3;
     groupid F1_rt_meter;
     parent F1_tpm_flatrate_A3;
}

object house {
     name F1_H_3;
     //Residential_2
     parent F1_tpm_rt_A3;
     schedule_skew 35;
     Rroof 28.89;
     Rwall 19.23;
     Rfloor 14.66;
     Rdoors 5;
     Rwindows 1.61;
     airchange_per_hour 0.98;
     hvac_power_factor 0.97;
     cooling_system_type ELECTRIC;
     heating_system_type GAS;
     fan_type ONE_SPEED;
     hvac_breaker_rating 200;
     total_thermal_mass_per_floor_area 4.03;
     motor_efficiency AVERAGE;
     motor_model BASIC;
     cooling_COP 3.94;
     floor_area 756;
     number_of_doors 1;
     heating_setpoint heating5*0.961+2.43;

     object controller {
          name F1_C_3;
          use_override ON;
          override override;
          market Market1;
          schedule_skew 35;
          bid_mode PROXY;
          proxy_delay 10;
          object controller_network_interface {
               name F1_single_ramp_NIF_3;
               destination MarkNIF1;
               
          };
          control_mode RAMP;
          base_setpoint cooling4*1.002+3.27;
          setpoint cooling_setpoint;
          target air_temperature;
          deadband thermostat_deadband;
          use_predictive_bidding true;
          average_target current_price_mean_24h;
          standard_deviation_target current_price_stdev_24h;
          period 300;
          demand last_cooling_load;
           range_high 6.000;
           range_low -3.000;
           ramp_high 2.400;
           ramp_low 2.400;
          total total_load;
          load hvac_load;
          state power_state;
     };

     object ZIPload {
          schedule_skew 35;
          base_power LIGHTS*1.9408;
          power_fraction 0.600000;
          impedance_fraction 0.400000;
          current_fraction 0.000000;
          power_pf -0.780;
          current_pf 0.420;
          impedance_pf -0.880;
          heat_fraction 0.88;
     };
     object ZIPload {
          schedule_skew 35;
          base_power CLOTHESWASHER*0.8239;
          power_fraction 1.000000;
          impedance_fraction 0.000000;
          current_fraction 0.000000;
          power_pf 0.970;
          current_pf 0.970;
          impedance_pf 0.970;
          heat_fraction 0.81;
     };
     object ZIPload {
          schedule_skew 35;
          base_power REFRIGERATOR*0.4240;
          power_fraction 1.000000;
          impedance_fraction 0.000000;
          current_fraction 0.000000;
          power_pf 0.970;
          current_pf 0.970;
          impedance_pf 0.970;
          heat_fraction 0.93;
     };
     object ZIPload {
          schedule_skew 35;
          base_power DRYER*0.8937;
          power_fraction 0.100000;
          impedance_fraction 0.800000;
          current_fraction 0.100000;
          power_pf 0.900;
          current_pf 0.900;
          impedance_pf 1.000;
          heat_fraction 0.93;
     };
     object ZIPload {
          schedule_skew 35;
          base_power FREEZER*0.3775;
          power_fraction 1.000000;
          impedance_fraction 0.000000;
          current_fraction 0.000000;
          power_pf 0.970;
          current_pf 0.970;
          impedance_pf 0.970;
          heat_fraction 0.65;
     };
     object ZIPload {
          schedule_skew 35;
          base_power RANGE*0.7730;
          power_fraction 0.000000;
          impedance_fraction 1.000000;
          current_fraction 0.000000;
          power_pf 0.000;
          current_pf 0.000;
          impedance_pf 1.000;
          heat_fraction 0.79;
     };
     object ZIPload {
          schedule_skew 35;
          base_power MICROWAVE*0.3543;
          power_fraction 1.000000;
          impedance_fraction 0.000000;
          current_fraction 0.000000;
          power_pf 0.970;
          current_pf 0.970;
          impedance_pf 0.970;
          heat_fraction 0.80;
     };
}

object triplex_line {
     from F1_triplex_node_A;
     to F1_tpm_flatrate_A4;
     groupid F1_Triplex_Line;
     phases AS;
     length 10;
     configuration TLCFG;
}

object triplex_meter {
     nominal_voltage 124;
     phases AS;
     name F1_tpm_flatrate_A4;
     groupid F1_flatrate_meter;
}

object triplex_meter {
     nominal_voltage 124;
     phases AS;
     name F1_tpm_rt_A4;
     groupid F1_rt_meter;
     parent F1_tpm_flatrate_A4;
}

object house {
     name F1_H_4;
     //Residential_3
     parent F1_tpm_rt_A4;
     schedule_skew 260;
     Rroof 20.99;
     Rwall 13.98;
     Rfloor 11.45;
     Rdoors 3;
     Rwindows 1.40;
     airchange_per_hour 1.18;
     hvac_power_factor 0.97;
     cooling_system_type ELECTRIC;
     heating_system_type GAS;
     fan_type ONE_SPEED;
     hvac_breaker_rating 200;
     total_thermal_mass_per_floor_area 3.42;
     motor_efficiency AVERAGE;
     motor_model BASIC;
     cooling_COP 3.28;
     floor_area 3882;
     number_of_doors 4;
     heating_setpoint heating4*1.043+0.05;

     object controller {
          name F1_C_4;
          use_override ON;
          override override;
          market Market1;
          schedule_skew 260;
          bid_mode PROXY;
          proxy_delay 10;
          object controller_network_interface {
               name F1_single_ramp_NIF_4;
               destination MarkNIF1;
               
          };
          control_mode RAMP;
          base_setpoint cooling3*1.018+2.06;
          setpoint cooling_setpoint;
          target air_temperature;
          deadband thermostat_deadband;
          use_predictive_bidding true;
          average_target current_price_mean_24h;
          standard_deviation_target current_price_stdev_24h;
          period 300;
          demand last_cooling_load;
           range_high 4.000;
           range_low -2.000;
           ramp_high 2.600;
           ramp_low 2.600;
          total total_load;
          load hvac_load;
          state power_state;
     };

     object ZIPload {
          schedule_skew 260;
          base_power LIGHTS*2.2355;
          power_fraction 0.600000;
          impedance_fraction 0.400000;
          current_fraction 0.000000;
          power_pf -0.780;
          current_pf 0.420;
          impedance_pf -0.880;
          heat_fraction 0.76;
     };
     object ZIPload {
          schedule_skew 260;
          base_power CLOTHESWASHER*0.8669;
          power_fraction 1.000000;
          impedance_fraction 0.000000;
          current_fraction 0.000000;
          power_pf 0.970;
          current_pf 0.970;
          impedance_pf 0.970;
          heat_fraction 0.66;
     };
     object ZIPload {
          schedule_skew 260;
          base_power REFRIGERATOR*1.2708;
          power_fraction 1.000000;
          impedance_fraction 0.000000;
          current_fraction 0.000000;
          power_pf 0.970;
          current_pf 0.970;
          impedance_pf 0.970;
          heat_fraction 0.79;
     };
     object ZIPload {
          schedule_skew 260;
          base_power DRYER*1.0217;
          power_fraction 0.100000;
          impedance_fraction 0.800000;
          current_fraction 0.100000;
          power_pf 0.900;
          current_pf 0.900;
          impedance_pf 1.000;
          heat_fraction 0.93;
     };
     object ZIPload {
          schedule_skew 260;
          base_power FREEZER*1.3624;
          power_fraction 1.000000;
          impedance_fraction 0.000000;
          current_fraction 0.000000;
          power_pf 0.970;
          current_pf 0.970;
          impedance_pf 0.970;
          heat_fraction 0.94;
     };
     object ZIPload {
          schedule_skew 260;
          base_power RANGE*0.8736;
          power_fraction 0.000000;
          impedance_fraction 1.000000;
          current_fraction 0.000000;
          power_pf 0.000;
          current_pf 0.000;
          impedance_pf 1.000;
          heat_fraction 0.86;
     };
     object ZIPload {
          schedule_skew 260;
          base_power MICROWAVE*2.0009;
          power_fraction 1.000000;
          impedance_fraction 0.000000;
          current_fraction 0.000000;
          power_pf 0.970;
          current_pf 0.970;
          impedance_pf 0.970;
          heat_fraction 0.90;
     };
}

object triplex_line {
     from F1_triplex_node_A;
     to F1_tpm_flatrate_A5;
     groupid F1_Triplex_Line;
     phases AS;
     length 10;
     configuration TLCFG;
}

object triplex_meter {
     nominal_voltage 124;
     phases AS;
     name F1_tpm_flatrate_A5;
     groupid F1_flatrate_meter;
}

object triplex_meter {
     nominal_voltage 124;
     phases AS;
     name F1_tpm_rt_A5;
     groupid F1_rt_meter;
     parent F1_tpm_flatrate_A5;
}

object house {
     name F1_H_5;
     //Residential_1
     parent F1_tpm_rt_A5;
     schedule_skew 1264;
     Rroof 22.61;
     Rwall 9.10;
     Rfloor 10.29;
     Rdoors 3;
     Rwindows 1.11;
     airchange_per_hour 1.09;
     hvac_power_factor 0.97;
     cooling_system_type ELECTRIC;
     heating_system_type GAS;
     fan_type ONE_SPEED;
     hvac_breaker_rating 200;
     total_thermal_mass_per_floor_area 4.23;
     motor_efficiency AVERAGE;
     motor_model BASIC;
     cooling_COP 2.98;
     floor_area 844;
     number_of_doors 1;
     heating_setpoint heating2*1.019+1.22;

     object controller {
          name F1_C_5;
          use_override ON;
          override override;
          market Market1;
          schedule_skew 1264;
          bid_mode PROXY;
          proxy_delay 10;
          object controller_network_interface {
               name F1_single_ramp_NIF_5;
               destination MarkNIF1;
               
          };
          control_mode RAMP;
          base_setpoint cooling1*1.006+5.77;
          setpoint cooling_setpoint;
          target air_temperature;
          deadband thermostat_deadband;
          use_predictive_bidding true;
          average_target current_price_mean_24h;
          standard_deviation_target current_price_stdev_24h;
          period 300;
          demand last_cooling_load;
           range_high 2.000;
           range_low -1.000;
           ramp_high 2.800;
           ramp_low 2.800;
          total total_load;
          load hvac_load;
          state power_state;
     };

     object ZIPload {
          schedule_skew 1264;
          base_power LIGHTS*1.3667;
          power_fraction 0.000000;
          impedance_fraction 1.000000;
          current_fraction 0.000000;
          power_pf 0.000;
          current_pf 0.000;
          impedance_pf 1.000;
          heat_fraction 0.68;
     };
     object ZIPload {
          schedule_skew 1264;
          base_power CLOTHESWASHER*0.3897;
          power_fraction 1.000000;
          impedance_fraction 0.000000;
          current_fraction 0.000000;
          power_pf 0.970;
          current_pf 0.970;
          impedance_pf 0.970;
          heat_fraction 0.96;
     };
     object ZIPload {
          schedule_skew 1264;
          base_power REFRIGERATOR*0.9743;
          power_fraction 1.000000;
          impedance_fraction 0.000000;
          current_fraction 0.000000;
          power_pf 0.970;
          current_pf 0.970;
          impedance_pf 0.970;
          heat_fraction 0.66;
     };
     object ZIPload {
          schedule_skew 1264;
          base_power DRYER*0.8633;
          power_fraction 0.100000;
          impedance_fraction 0.800000;
          current_fraction 0.100000;
          power_pf 0.900;
          current_pf 0.900;
          impedance_pf 1.000;
          heat_fraction 0.78;
     };
     object ZIPload {
          schedule_skew 1264;
          base_power RANGE*0.2890;
          power_fraction 0.000000;
          impedance_fraction 1.000000;
          current_fraction 0.000000;
          power_pf 0.000;
          current_pf 0.000;
          impedance_pf 1.000;
          heat_fraction 0.86;
     };
     object ZIPload {
          schedule_skew 1264;
          base_power MICROWAVE*1.0672;
          power_fraction 1.000000;
          impedance_fraction 0.000000;
          current_fraction 0.000000;
          power_pf 0.970;
          current_pf 0.970;
          impedance_pf 0.970;
          heat_fraction 0.93;
     };
}

object triplex_line {
     from F1_triplex_node_A;
     to F1_tpm_flatrate_A6;
     groupid F1_Triplex_Line;
     phases AS;
     length 10;
     configuration TLCFG;
}

object triplex_meter {
     nominal_voltage 124;
     phases AS;
     name F1_tpm_flatrate_A6;
     groupid F1_flatrate_meter;
}

object triplex_meter {
     nominal_voltage 124;
     phases AS;
     name F1_tpm_rt_A6;
     groupid F1_rt_meter;
     parent F1_tpm_flatrate_A6;
}

object house {
     name F1_H_6;
     //Residential_1
     parent F1_tpm_rt_A6;
     schedule_skew -2499;
     Rroof 16.61;
     Rwall 8.19;
     Rfloor 10.09;
     Rdoors 3;
     Rwindows 1.26;
     airchange_per_hour 0.84;
     hvac_power_factor 0.97;
     cooling_system_type ELECTRIC;
     heating_system_type GAS;
     fan_type ONE_SPEED;
     hvac_breaker_rating 200;
     total_thermal_mass_per_floor_area 4.44;
     motor_efficiency AVERAGE;
     motor_model BASIC;
     cooling_COP 2.71;
     floor_area 804;
     number_of_doors 1;
     heating_setpoint heating1*0.991+2.72;

     object controller {
          name F1_C_6;
          use_override ON;
          override override;
          market Market1;
          schedule_skew -2499;
          bid_mode PROXY;
          proxy_delay 10;
          object controller_network_interface {
               name F1_single_ramp_NIF_6;
               destination MarkNIF1;
               
          };
          control_mode RAMP;
          base_setpoint cooling7*0.956+5.02;
          setpoint cooling_setpoint;
          target air_temperature;
          deadband thermostat_deadband;
          use_predictive_bidding true;
          average_target current_price_mean_24h;
          standard_deviation_target current_price_stdev_24h;
          period 300;
          demand last_cooling_load;
           range_high 6.000;
           range_low -3.000;
           ramp_high 2.400;
           ramp_low 2.400;
          total total_load;
          load hvac_load;
          state power_state;
     };

     object ZIPload {
          schedule_skew -2499;
          base_power LIGHTS*1.1573;
          power_fraction 0.600000;
          impedance_fraction 0.400000;
          current_fraction 0.000000;
          power_pf -0.780;
          current_pf 0.420;
          impedance_pf -0.880;
          heat_fraction 0.77;
     };
}

object triplex_line {
     from F1_triplex_node_A;
     to F1_tpm_flatrate_A7;
     groupid F1_Triplex_Line;
     phases AS;
     length 10;
     configuration TLCFG;
}

object triplex_meter {
     nominal_voltage 124;
     phases AS;
     name F1_tpm_flatrate_A7;
     groupid F1_flatrate_meter;
}

object triplex_meter {
     nominal_voltage 124;
     phases AS;
     name F1_tpm_rt_A7;
     groupid F1_rt_meter;
     parent F1_tpm_flatrate_A7;
}

object house {
     name F1_H_7;
     //Residential_4
     parent F1_tpm_rt_A7;
     schedule_skew 434;
     Rroof 27.91;
     Rwall 21.89;
     Rfloor 14.02;
     Rdoors 5;
     Rwindows 1.95;
     airchange_per_hour 1.15;
     hvac_power_factor 0.97;
     cooling_system_type ELECTRIC;
     heating_system_type GAS;
     fan_type ONE_SPEED;
     hvac_breaker_rating 200;
     total_thermal_mass_per_floor_area 4.09;
     motor_efficiency AVERAGE;
     motor_model BASIC;
     cooling_COP 3.44;
     floor_area 3695;
     number_of_doors 4;
     heating_setpoint heating5*1.031+2.26;

     object controller {
          name F1_C_7;
          use_override ON;
          override override;
          market Market1;
          schedule_skew 434;
          bid_mode PROXY;
          proxy_delay 10;
          object controller_network_interface {
               name F1_single_ramp_NIF_7;
               destination MarkNIF1;
               
          };
          control_mode RAMP;
          base_setpoint cooling5*1.035+5.35;
          setpoint cooling_setpoint;
          target air_temperature;
          deadband thermostat_deadband;
          use_predictive_bidding true;
          average_target current_price_mean_24h;
          standard_deviation_target current_price_stdev_24h;
          period 300;
          demand last_cooling_load;
           range_high 8.000;
           range_low -4.000;
           ramp_high 2.200;
           ramp_low 2.200;
          total total_load;
          load hvac_load;
          state power_state;
     };

     object ZIPload {
          schedule_skew 434;
          base_power LIGHTS*4.1069;
          power_fraction 0.000000;
          impedance_fraction 1.000000;
          current_fraction 0.000000;
          power_pf 0.000;
          current_pf 0.000;
          impedance_pf 1.000;
          heat_fraction 0.67;
     };
     object ZIPload {
          schedule_skew 434;
          base_power CLOTHESWASHER*1.3204;
          power_fraction 1.000000;
          impedance_fraction 0.000000;
          current_fraction 0.000000;
          power_pf 0.970;
          current_pf 0.970;
          impedance_pf 0.970;
          heat_fraction 0.80;
     };
     object ZIPload {
          schedule_skew 434;
          base_power REFRIGERATOR*1.4569;
          power_fraction 1.000000;
          impedance_fraction 0.000000;
          current_fraction 0.000000;
          power_pf 0.970;
          current_pf 0.970;
          impedance_pf 0.970;
          heat_fraction 0.82;
     };
     object ZIPload {
          schedule_skew 434;
          base_power DRYER*1.0100;
          power_fraction 0.100000;
          impedance_fraction 0.800000;
          current_fraction 0.100000;
          power_pf 0.900;
          current_pf 0.900;
          impedance_pf 1.000;
          heat_fraction 0.65;
     };
     object ZIPload {
          schedule_skew 434;
          base_power FREEZER*0.9152;
          power_fraction 1.000000;
          impedance_fraction 0.000000;
          current_fraction 0.000000;
          power_pf 0.970;
          current_pf 0.970;
          impedance_pf 0.970;
          heat_fraction 0.72;
     };
     object ZIPload {
          schedule_skew 434;
          base_power RANGE*1.0532;
          power_fraction 0.000000;
          impedance_fraction 1.000000;
          current_fraction 0.000000;
          power_pf 0.000;
          current_pf 0.000;
          impedance_pf 1.000;
          heat_fraction 0.87;
     };
     object ZIPload {
          schedule_skew 434;
          base_power MICROWAVE*1.3023;
          power_fraction 1.000000;
          impedance_fraction 0.000000;
          current_fraction 0.000000;
          power_pf 0.970;
          current_pf 0.970;
          impedance_pf 0.970;
          heat_fraction 0.92;
     };
}

object triplex_line {
     from F1_triplex_node_A;
     to F1_tpm_flatrate_A8;
     groupid F1_Triplex_Line;
     phases AS;
     length 10;
     configuration TLCFG;
}

object triplex_meter {
     nominal_voltage 124;
     phases AS;
     name F1_tpm_flatrate_A8;
     groupid F1_flatrate_meter;
}

object triplex_meter {
     nominal_voltage 124;
     phases AS;
     name F1_tpm_rt_A8;
     groupid F1_rt_meter;
     parent F1_tpm_flatrate_A8;
}

object house {
     name F1_H_8;
     //Residential_3
     parent F1_tpm_rt_A8;
     schedule_skew 733;
     Rroof 16.53;
     Rwall 9.33;
     Rfloor 10.28;
     Rdoors 3;
     Rwindows 1.19;
     airchange_per_hour 1.18;
     hvac_power_factor 0.97;
     cooling_system_type ELECTRIC;
     heating_system_type GAS;
     fan_type ONE_SPEED;
     hvac_breaker_rating 200;
     total_thermal_mass_per_floor_area 4.90;
     motor_efficiency AVERAGE;
     motor_model BASIC;
     cooling_COP 2.92;
     floor_area 2716;
     number_of_doors 3;
     heating_setpoint heating3*0.960+0.71;

     object controller {
          name F1_C_8;
          use_override ON;
          override override;
          market Market1;
          schedule_skew 733;
          bid_mode PROXY;
          proxy_delay 10;
          object controller_network_interface {
               name F1_single_ramp_NIF_8;
               destination MarkNIF1;
               
          };
          control_mode RAMP;
          base_setpoint cooling7*0.969+2.23;
          setpoint cooling_setpoint;
          target air_temperature;
          deadband thermostat_deadband;
          use_predictive_bidding true;
          average_target current_price_mean_24h;
          standard_deviation_target current_price_stdev_24h;
          period 300;
          demand last_cooling_load;
           range_high 8.000;
           range_low -4.000;
           ramp_high 2.200;
           ramp_low 2.200;
          total total_load;
          load hvac_load;
          state power_state;
     };

     object ZIPload {
          schedule_skew 733;
          base_power LIGHTS*1.2477;
          power_fraction 0.000000;
          impedance_fraction 1.000000;
          current_fraction 0.000000;
          power_pf 0.000;
          current_pf 0.000;
          impedance_pf 1.000;
          heat_fraction 0.76;
     };
     object ZIPload {
          schedule_skew 733;
          base_power CLOTHESWASHER*1.5033;
          power_fraction 1.000000;
          impedance_fraction 0.000000;
          current_fraction 0.000000;
          power_pf 0.970;
          current_pf 0.970;
          impedance_pf 0.970;
          heat_fraction 0.86;
     };
     object ZIPload {
          schedule_skew 733;
          base_power REFRIGERATOR*1.7876;
          power_fraction 1.000000;
          impedance_fraction 0.000000;
          current_fraction 0.000000;
          power_pf 0.970;
          current_pf 0.970;
          impedance_pf 0.970;
          heat_fraction 0.72;
     };
     object ZIPload {
          schedule_skew 733;
          base_power DRYER*1.7269;
          power_fraction 0.100000;
          impedance_fraction 0.800000;
          current_fraction 0.100000;
          power_pf 0.900;
          current_pf 0.900;
          impedance_pf 1.000;
          heat_fraction 0.74;
     };
     object ZIPload {
          schedule_skew 733;
          base_power FREEZER*1.1682;
          power_fraction 1.000000;
          impedance_fraction 0.000000;
          current_fraction 0.000000;
          power_pf 0.970;
          current_pf 0.970;
          impedance_pf 0.970;
          heat_fraction 0.89;
     };
     object ZIPload {
          schedule_skew 733;
          base_power RANGE*1.1668;
          power_fraction 0.000000;
          impedance_fraction 1.000000;
          current_fraction 0.000000;
          power_pf 0.000;
          current_pf 0.000;
          impedance_pf 1.000;
          heat_fraction 0.89;
     };
     object ZIPload {
          schedule_skew 733;
          base_power MICROWAVE*0.6345;
          power_fraction 1.000000;
          impedance_fraction 0.000000;
          current_fraction 0.000000;
          power_pf 0.970;
          current_pf 0.970;
          impedance_pf 0.970;
          heat_fraction 0.80;
     };
}

object triplex_line {
     from F1_triplex_node_A;
     to F1_tpm_flatrate_A9;
     groupid F1_Triplex_Line;
     phases AS;
     length 10;
     configuration TLCFG;
}

object triplex_meter {
     nominal_voltage 124;
     phases AS;
     name F1_tpm_flatrate_A9;
     groupid F1_flatrate_meter;
}

object triplex_meter {
     nominal_voltage 124;
     phases AS;
     name F1_tpm_rt_A9;
     groupid F1_rt_meter;
     parent F1_tpm_flatrate_A9;
}

object house {
     name F1_H_9;
     //Residential_1
     parent F1_tpm_rt_A9;
     schedule_skew 1301;
     Rroof 19.42;
     Rwall 11.57;
     Rfloor 10.07;
     Rdoors 3;
     Rwindows 1.43;
     airchange_per_hour 0.94;
     hvac_power_factor 0.97;
     cooling_system_type ELECTRIC;
     heating_system_type GAS;
     fan_type ONE_SPEED;
     hvac_breaker_rating 200;
     total_thermal_mass_per_floor_area 3.23;
     motor_efficiency AVERAGE;
     motor_model BASIC;
     cooling_COP 3.78;
     floor_area 878;
     number_of_doors 1;
     heating_setpoint heating8*0.956+0.41;

     object controller {
          name F1_C_9;
          use_override ON;
          override override;
          market Market1;
          schedule_skew 1301;
          bid_mode PROXY;
          proxy_delay 10;
          object controller_network_interface {
               name F1_single_ramp_NIF_9;
               destination MarkNIF1;
               
          };
          control_mode RAMP;
          base_setpoint cooling8*0.980+3.68;
          setpoint cooling_setpoint;
          target air_temperature;
          deadband thermostat_deadband;
          use_predictive_bidding true;
          average_target current_price_mean_24h;
          standard_deviation_target current_price_stdev_24h;
          period 300;
          demand last_cooling_load;
           range_high 6.000;
           range_low -3.000;
           ramp_high 2.400;
           ramp_low 2.400;
          total total_load;
          load hvac_load;
          state power_state;
     };

     object ZIPload {
          schedule_skew 1301;
          base_power LIGHTS*0.9646;
          power_fraction 0.600000;
          impedance_fraction 0.400000;
          current_fraction 0.000000;
          power_pf -0.780;
          current_pf 0.420;
          impedance_pf -0.880;
          heat_fraction 0.77;
     };
}

object triplex_line {
     from F1_triplex_node_A;
     to F1_tpm_flatrate_A10;
     groupid F1_Triplex_Line;
     phases AS;
     length 10;
     configuration TLCFG;
}

object triplex_meter {
     nominal_voltage 124;
     phases AS;
     name F1_tpm_flatrate_A10;
     groupid F1_flatrate_meter;
}

object triplex_meter {
     nominal_voltage 124;
     phases AS;
     name F1_tpm_rt_A10;
     groupid F1_rt_meter;
     parent F1_tpm_flatrate_A10;
}

object house {
     name F1_H_10;
     //Residential_1
     parent F1_tpm_rt_A10;
     schedule_skew -1933;
     Rroof 15.99;
     Rwall 8.21;
     Rfloor 10.39;
     Rdoors 3;
     Rwindows 1.15;
     airchange_per_hour 1.17;
     hvac_power_factor 0.97;
     cooling_system_type ELECTRIC;
     heating_system_type GAS;
     fan_type ONE_SPEED;
     hvac_breaker_rating 200;
     total_thermal_mass_per_floor_area 4.15;
     motor_efficiency AVERAGE;
     motor_model BASIC;
     cooling_COP 3.24;
     floor_area 1058;
     number_of_doors 2;
     heating_setpoint heating8*0.986+2.78;

     object controller {
          name F1_C_10;
          use_override ON;
          override override;
          market Market1;
          schedule_skew -1933;
          bid_mode PROXY;
          proxy_delay 10;
          object controller_network_interface {
               name F1_single_ramp_NIF_10;
               destination MarkNIF1;
               
          };
          control_mode RAMP;
          base_setpoint cooling7*1.030+5.45;
          setpoint cooling_setpoint;
          target air_temperature;
          deadband thermostat_deadband;
          use_predictive_bidding true;
          average_target current_price_mean_24h;
          standard_deviation_target current_price_stdev_24h;
          period 300;
          demand last_cooling_load;
           range_high 0.000;
           range_low 0.000;
           ramp_high 3.000;
           ramp_low 3.000;
          total total_load;
          load hvac_load;
          state power_state;
     };

     object ZIPload {
          schedule_skew -1933;
          base_power LIGHTS*2.3040;
          power_fraction 0.000000;
          impedance_fraction 1.000000;
          current_fraction 0.000000;
          power_pf 0.000;
          current_pf 0.000;
          impedance_pf 1.000;
          heat_fraction 0.73;
     };
}

object triplex_line {
     from F1_triplex_node_A;
     to F1_tpm_flatrate_A11;
     groupid F1_Triplex_Line;
     phases AS;
     length 10;
     configuration TLCFG;
}

object triplex_meter {
     nominal_voltage 124;
     phases AS;
     name F1_tpm_flatrate_A11;
     groupid F1_flatrate_meter;
}

object triplex_meter {
     nominal_voltage 124;
     phases AS;
     name F1_tpm_rt_A11;
     groupid F1_rt_meter;
     parent F1_tpm_flatrate_A11;
}

object house {
     name F1_H_11;
     //Residential_2
     parent F1_tpm_rt_A11;
     schedule_skew -748;
     Rroof 29.44;
     Rwall 16.04;
     Rfloor 15.06;
     Rdoors 5;
     Rwindows 1.77;
     airchange_per_hour 1.07;
     hvac_power_factor 0.97;
     cooling_system_type ELECTRIC;
     heating_system_type GAS;
     fan_type ONE_SPEED;
     hvac_breaker_rating 200;
     total_thermal_mass_per_floor_area 3.45;
     motor_efficiency AVERAGE;
     motor_model BASIC;
     cooling_COP 3.40;
     floor_area 817;
     number_of_doors 1;
     heating_setpoint heating2*0.953+2.65;

     object controller {
          name F1_C_11;
          use_override ON;
          override override;
          market Market1;
          schedule_skew -748;
          bid_mode PROXY;
          proxy_delay 10;
          object controller_network_interface {
               name F1_single_ramp_NIF_11;
               destination MarkNIF1;
               
          };
          control_mode RAMP;
          base_setpoint cooling4*1.006+3.45;
          setpoint cooling_setpoint;
          target air_temperature;
          deadband thermostat_deadband;
          use_predictive_bidding true;
          average_target current_price_mean_24h;
          standard_deviation_target current_price_stdev_24h;
          period 300;
          demand last_cooling_load;
           range_high 0.000;
           range_low 0.000;
           ramp_high 3.000;
           ramp_low 3.000;
          total total_load;
          load hvac_load;
          state power_state;
     };

     object ZIPload {
          schedule_skew -748;
          base_power LIGHTS*1.7590;
          power_fraction 0.000000;
          impedance_fraction 1.000000;
          current_fraction 0.000000;
          power_pf 0.000;
          current_pf 0.000;
          impedance_pf 1.000;
          heat_fraction 0.65;
     };
     object ZIPload {
          schedule_skew -748;
          base_power CLOTHESWASHER*0.5772;
          power_fraction 1.000000;
          impedance_fraction 0.000000;
          current_fraction 0.000000;
          power_pf 0.970;
          current_pf 0.970;
          impedance_pf 0.970;
          heat_fraction 0.87;
     };
     object ZIPload {
          schedule_skew -748;
          base_power REFRIGERATOR*0.6797;
          power_fraction 1.000000;
          impedance_fraction 0.000000;
          current_fraction 0.000000;
          power_pf 0.970;
          current_pf 0.970;
          impedance_pf 0.970;
          heat_fraction 0.80;
     };
     object ZIPload {
          schedule_skew -748;
          base_power DRYER*0.7914;
          power_fraction 0.100000;
          impedance_fraction 0.800000;
          current_fraction 0.100000;
          power_pf 0.900;
          current_pf 0.900;
          impedance_pf 1.000;
          heat_fraction 0.66;
     };
     object ZIPload {
          schedule_skew -748;
          base_power FREEZER*0.4258;
          power_fraction 1.000000;
          impedance_fraction 0.000000;
          current_fraction 0.000000;
          power_pf 0.970;
          current_pf 0.970;
          impedance_pf 0.970;
          heat_fraction 0.75;
     };
     object ZIPload {
          schedule_skew -748;
          base_power RANGE*0.6813;
          power_fraction 0.000000;
          impedance_fraction 1.000000;
          current_fraction 0.000000;
          power_pf 0.000;
          current_pf 0.000;
          impedance_pf 1.000;
          heat_fraction 0.78;
     };
     object ZIPload {
          schedule_skew -748;
          base_power MICROWAVE*0.7537;
          power_fraction 1.000000;
          impedance_fraction 0.000000;
          current_fraction 0.000000;
          power_pf 0.970;
          current_pf 0.970;
          impedance_pf 0.970;
          heat_fraction 0.81;
     };
}

object triplex_line {
     from F1_triplex_node_A;
     to F1_tpm_flatrate_A12;
     groupid F1_Triplex_Line;
     phases AS;
     length 10;
     configuration TLCFG;
}

object triplex_meter {
     nominal_voltage 124;
     phases AS;
     name F1_tpm_flatrate_A12;
     groupid F1_flatrate_meter;
}

object triplex_meter {
     nominal_voltage 124;
     phases AS;
     name F1_tpm_rt_A12;
     groupid F1_rt_meter;
     parent F1_tpm_flatrate_A12;
}

object house {
     name F1_H_12;
     //Residential_5
     parent F1_tpm_rt_A12;
     schedule_skew -569;
     Rroof 13.17;
     Rwall 4.23;
     Rfloor 4.78;
     Rdoors 3;
     Rwindows 1.56;
     airchange_per_hour 1.49;
     hvac_power_factor 0.97;
     cooling_system_type ELECTRIC;
     heating_system_type GAS;
     fan_type ONE_SPEED;
     hvac_breaker_rating 200;
     total_thermal_mass_per_floor_area 4.36;
     motor_efficiency AVERAGE;
     motor_model BASIC;
     cooling_COP 2.54;
     floor_area 701;
     number_of_doors 1;
     heating_setpoint heating5*1.037+2.14;

     object controller {
          name F1_C_12;
          use_override ON;
          override override;
          market Market1;
          schedule_skew -569;
          bid_mode PROXY;
          proxy_delay 10;
          object controller_network_interface {
               name F1_single_ramp_NIF_12;
               destination MarkNIF1;
               
          };
          control_mode RAMP;
          base_setpoint cooling5*0.999+4.57;
          setpoint cooling_setpoint;
          target air_temperature;
          deadband thermostat_deadband;
          use_predictive_bidding true;
          average_target current_price_mean_24h;
          standard_deviation_target current_price_stdev_24h;
          period 300;
          demand last_cooling_load;
           range_high 2.000;
           range_low -1.000;
           ramp_high 2.800;
           ramp_low 2.800;
          total total_load;
          load hvac_load;
          state power_state;
     };

     object ZIPload {
          schedule_skew -569;
          base_power LIGHTS*0.9417;
          power_fraction 0.000000;
          impedance_fraction 1.000000;
          current_fraction 0.000000;
          power_pf 0.000;
          current_pf 0.000;
          impedance_pf 1.000;
          heat_fraction 0.72;
     };
     object ZIPload {
          schedule_skew -569;
          base_power CLOTHESWASHER*0.8107;
          power_fraction 1.000000;
          impedance_fraction 0.000000;
          current_fraction 0.000000;
          power_pf 0.970;
          current_pf 0.970;
          impedance_pf 0.970;
          heat_fraction 0.80;
     };
     object ZIPload {
          schedule_skew -569;
          base_power REFRIGERATOR*0.5838;
          power_fraction 1.000000;
          impedance_fraction 0.000000;
          current_fraction 0.000000;
          power_pf 0.970;
          current_pf 0.970;
          impedance_pf 0.970;
          heat_fraction 0.79;
     };
     object ZIPload {
          schedule_skew -569;
          base_power DRYER*0.9050;
          power_fraction 0.100000;
          impedance_fraction 0.800000;
          current_fraction 0.100000;
          power_pf 0.900;
          current_pf 0.900;
          impedance_pf 1.000;
          heat_fraction 0.69;
     };
     object ZIPload {
          schedule_skew -569;
          base_power FREEZER*0.8493;
          power_fraction 1.000000;
          impedance_fraction 0.000000;
          current_fraction 0.000000;
          power_pf 0.970;
          current_pf 0.970;
          impedance_pf 0.970;
          heat_fraction 0.70;
     };
     object ZIPload {
          schedule_skew -569;
          base_power RANGE*0.3924;
          power_fraction 0.000000;
          impedance_fraction 1.000000;
          current_fraction 0.000000;
          power_pf 0.000;
          current_pf 0.000;
          impedance_pf 1.000;
          heat_fraction 0.84;
     };
     object ZIPload {
          schedule_skew -569;
          base_power MICROWAVE*0.6543;
          power_fraction 1.000000;
          impedance_fraction 0.000000;
          current_fraction 0.000000;
          power_pf 0.970;
          current_pf 0.970;
          impedance_pf 0.970;
          heat_fraction 0.80;
     };
}

object triplex_line {
     from F1_triplex_node_A;
     to F1_tpm_flatrate_A13;
     groupid F1_Triplex_Line;
     phases AS;
     length 10;
     configuration TLCFG;
}

object triplex_meter {
     nominal_voltage 124;
     phases AS;
     name F1_tpm_flatrate_A13;
     groupid F1_flatrate_meter;
}

object triplex_meter {
     nominal_voltage 124;
     phases AS;
     name F1_tpm_rt_A13;
     groupid F1_rt_meter;
     parent F1_tpm_flatrate_A13;
}

object house {
     name F1_H_13;
     //Residential_1
     parent F1_tpm_rt_A13;
     schedule_skew 2422;
     Rroof 19.98;
     Rwall 11.04;
     Rfloor 11.25;
     Rdoors 3;
     Rwindows 0.81;
     airchange_per_hour 0.81;
     hvac_power_factor 0.97;
     cooling_system_type ELECTRIC;
     heating_system_type GAS;
     fan_type ONE_SPEED;
     hvac_breaker_rating 200;
     total_thermal_mass_per_floor_area 4.87;
     motor_efficiency AVERAGE;
     motor_model BASIC;
     cooling_COP 3.34;
     floor_area 1476;
     number_of_doors 2;
     heating_setpoint heating7*1.050+2.04;

     object controller {
          name F1_C_13;
          use_override ON;
          override override;
          market Market1;
          schedule_skew 2422;
          bid_mode PROXY;
          proxy_delay 10;
          object controller_network_interface {
               name F1_single_ramp_NIF_13;
               destination MarkNIF1;
               
          };
          control_mode RAMP;
          base_setpoint cooling5*0.984+4.92;
          setpoint cooling_setpoint;
          target air_temperature;
          deadband thermostat_deadband;
          use_predictive_bidding true;
          average_target current_price_mean_24h;
          standard_deviation_target current_price_stdev_24h;
          period 300;
          demand last_cooling_load;
           range_high 6.000;
           range_low -3.000;
           ramp_high 2.400;
           ramp_low 2.400;
          total total_load;
          load hvac_load;
          state power_state;
     };

     object ZIPload {
          schedule_skew 2422;
          base_power LIGHTS*1.2062;
          power_fraction 0.000000;
          impedance_fraction 1.000000;
          current_fraction 0.000000;
          power_pf 0.000;
          current_pf 0.000;
          impedance_pf 1.000;
          heat_fraction 0.89;
     };
     object ZIPload {
          schedule_skew 2422;
          base_power CLOTHESWASHER*0.4776;
          power_fraction 1.000000;
          impedance_fraction 0.000000;
          current_fraction 0.000000;
          power_pf 0.970;
          current_pf 0.970;
          impedance_pf 0.970;
          heat_fraction 0.95;
     };
     object ZIPload {
          schedule_skew 2422;
          base_power REFRIGERATOR*0.7108;
          power_fraction 1.000000;
          impedance_fraction 0.000000;
          current_fraction 0.000000;
          power_pf 0.970;
          current_pf 0.970;
          impedance_pf 0.970;
          heat_fraction 0.92;
     };
     object ZIPload {
          schedule_skew 2422;
          base_power DRYER*1.1409;
          power_fraction 0.100000;
          impedance_fraction 0.800000;
          current_fraction 0.100000;
          power_pf 0.900;
          current_pf 0.900;
          impedance_pf 1.000;
          heat_fraction 0.73;
     };
     object ZIPload {
          schedule_skew 2422;
          base_power RANGE*0.5107;
          power_fraction 0.000000;
          impedance_fraction 1.000000;
          current_fraction 0.000000;
          power_pf 0.000;
          current_pf 0.000;
          impedance_pf 1.000;
          heat_fraction 0.70;
     };
     object ZIPload {
          schedule_skew 2422;
          base_power MICROWAVE*1.2349;
          power_fraction 1.000000;
          impedance_fraction 0.000000;
          current_fraction 0.000000;
          power_pf 0.970;
          current_pf 0.970;
          impedance_pf 0.970;
          heat_fraction 0.87;
     };
}

object triplex_line {
     from F1_triplex_node_A;
     to F1_tpm_flatrate_A14;
     groupid F1_Triplex_Line;
     phases AS;
     length 10;
     configuration TLCFG;
}

object triplex_meter {
     nominal_voltage 124;
     phases AS;
     name F1_tpm_flatrate_A14;
     groupid F1_flatrate_meter;
}

object triplex_meter {
     nominal_voltage 124;
     phases AS;
     name F1_tpm_rt_A14;
     groupid F1_rt_meter;
     parent F1_tpm_flatrate_A14;
}

object house {
     name F1_H_14;
     //Residential_2
     parent F1_tpm_rt_A14;
     schedule_skew -1557;
     Rroof 33.94;
     Rwall 21.91;
     Rfloor 16.10;
     Rdoors 5;
     Rwindows 1.87;
     airchange_per_hour 1.17;
     hvac_power_factor 0.97;
     cooling_system_type ELECTRIC;
     heating_system_type GAS;
     fan_type ONE_SPEED;
     hvac_breaker_rating 200;
     total_thermal_mass_per_floor_area 4.72;
     motor_efficiency AVERAGE;
     motor_model BASIC;
     cooling_COP 3.42;
     floor_area 977;
     number_of_doors 1;
     heating_setpoint heating6*1.050+1.02;

     object controller {
          name F1_C_14;
          use_override ON;
          override override;
          market Market1;
          schedule_skew -1557;
          bid_mode PROXY;
          proxy_delay 10;
          object controller_network_interface {
               name F1_single_ramp_NIF_14;
               destination MarkNIF1;
               
          };
          control_mode RAMP;
          base_setpoint cooling4*0.978+5.54;
          setpoint cooling_setpoint;
          target air_temperature;
          deadband thermostat_deadband;
          use_predictive_bidding true;
          average_target current_price_mean_24h;
          standard_deviation_target current_price_stdev_24h;
          period 300;
          demand last_cooling_load;
           range_high 4.000;
           range_low -2.000;
           ramp_high 2.600;
           ramp_low 2.600;
          total total_load;
          load hvac_load;
          state power_state;
     };

     object ZIPload {
          schedule_skew -1557;
          base_power LIGHTS*1.5860;
          power_fraction 0.000000;
          impedance_fraction 1.000000;
          current_fraction 0.000000;
          power_pf 0.000;
          current_pf 0.000;
          impedance_pf 1.000;
          heat_fraction 0.88;
     };
     object ZIPload {
          schedule_skew -1557;
          base_power CLOTHESWASHER*1.0618;
          power_fraction 1.000000;
          impedance_fraction 0.000000;
          current_fraction 0.000000;
          power_pf 0.970;
          current_pf 0.970;
          impedance_pf 0.970;
          heat_fraction 0.77;
     };
     object ZIPload {
          schedule_skew -1557;
          base_power REFRIGERATOR*0.8285;
          power_fraction 1.000000;
          impedance_fraction 0.000000;
          current_fraction 0.000000;
          power_pf 0.970;
          current_pf 0.970;
          impedance_pf 0.970;
          heat_fraction 0.86;
     };
     object ZIPload {
          schedule_skew -1557;
          base_power DRYER*0.8905;
          power_fraction 0.100000;
          impedance_fraction 0.800000;
          current_fraction 0.100000;
          power_pf 0.900;
          current_pf 0.900;
          impedance_pf 1.000;
          heat_fraction 0.72;
     };
     object ZIPload {
          schedule_skew -1557;
          base_power FREEZER*0.8028;
          power_fraction 1.000000;
          impedance_fraction 0.000000;
          current_fraction 0.000000;
          power_pf 0.970;
          current_pf 0.970;
          impedance_pf 0.970;
          heat_fraction 0.78;
     };
     object ZIPload {
          schedule_skew -1557;
          base_power RANGE*0.3977;
          power_fraction 0.000000;
          impedance_fraction 1.000000;
          current_fraction 0.000000;
          power_pf 0.000;
          current_pf 0.000;
          impedance_pf 1.000;
          heat_fraction 0.65;
     };
     object ZIPload {
          schedule_skew -1557;
          base_power MICROWAVE*0.5787;
          power_fraction 1.000000;
          impedance_fraction 0.000000;
          current_fraction 0.000000;
          power_pf 0.970;
          current_pf 0.970;
          impedance_pf 0.970;
          heat_fraction 0.77;
     };
}

object triplex_line {
     from F1_triplex_node_A;
     to F1_tpm_flatrate_A15;
     groupid F1_Triplex_Line;
     phases AS;
     length 10;
     configuration TLCFG;
}

object triplex_meter {
     nominal_voltage 124;
     phases AS;
     name F1_tpm_flatrate_A15;
     groupid F1_flatrate_meter;
}

object triplex_meter {
     nominal_voltage 124;
     phases AS;
     name F1_tpm_rt_A15;
     groupid F1_rt_meter;
     parent F1_tpm_flatrate_A15;
}

object house {
     name F1_H_15;
     //Residential_2
     parent F1_tpm_rt_A15;
     schedule_skew 2179;
     Rroof 29.08;
     Rwall 20.29;
     Rfloor 13.97;
     Rdoors 5;
     Rwindows 1.76;
     airchange_per_hour 0.88;
     hvac_power_factor 0.97;
     cooling_system_type ELECTRIC;
     heating_system_type GAS;
     fan_type ONE_SPEED;
     hvac_breaker_rating 200;
     total_thermal_mass_per_floor_area 4.41;
     motor_efficiency AVERAGE;
     motor_model BASIC;
     cooling_COP 3.79;
     floor_area 1319;
     number_of_doors 2;
     heating_setpoint heating2*0.997+1.07;

     object controller {
          name F1_C_15;
          use_override ON;
          override override;
          market Market1;
          schedule_skew 2179;
          bid_mode PROXY;
          proxy_delay 10;
          object controller_network_interface {
               name F1_single_ramp_NIF_15;
               destination MarkNIF1;
               
          };
          control_mode RAMP;
          base_setpoint cooling7*1.031+3.84;
          setpoint cooling_setpoint;
          target air_temperature;
          deadband thermostat_deadband;
          use_predictive_bidding true;
          average_target current_price_mean_24h;
          standard_deviation_target current_price_stdev_24h;
          period 300;
          demand last_cooling_load;
           range_high 0.000;
           range_low 0.000;
           ramp_high 3.000;
           ramp_low 3.000;
          total total_load;
          load hvac_load;
          state power_state;
     };

     object ZIPload {
          schedule_skew 2179;
          base_power LIGHTS*1.6653;
          power_fraction 0.000000;
          impedance_fraction 1.000000;
          current_fraction 0.000000;
          power_pf 0.000;
          current_pf 0.000;
          impedance_pf 1.000;
          heat_fraction 0.82;
     };
     object ZIPload {
          schedule_skew 2179;
          base_power CLOTHESWASHER*1.0120;
          power_fraction 1.000000;
          impedance_fraction 0.000000;
          current_fraction 0.000000;
          power_pf 0.970;
          current_pf 0.970;
          impedance_pf 0.970;
          heat_fraction 0.64;
     };
     object ZIPload {
          schedule_skew 2179;
          base_power REFRIGERATOR*1.1930;
          power_fraction 1.000000;
          impedance_fraction 0.000000;
          current_fraction 0.000000;
          power_pf 0.970;
          current_pf 0.970;
          impedance_pf 0.970;
          heat_fraction 0.71;
     };
     object ZIPload {
          schedule_skew 2179;
          base_power DRYER*1.2305;
          power_fraction 0.100000;
          impedance_fraction 0.800000;
          current_fraction 0.100000;
          power_pf 0.900;
          current_pf 0.900;
          impedance_pf 1.000;
          heat_fraction 0.75;
     };
     object ZIPload {
...